/*--------------------------------*- C++ -*----------------------------------*\
| =========                 |                                                 |
| \\      /  F ield         | OpenFOAM: The Open Source CFD Toolbox           |
|  \\    /   O peration     | Version:  v1912                                 |
|   \\  /    A nd           | Website:  www.openfoam.com                      |
|    \\/     M anipulation  |                                                 |
\*---------------------------------------------------------------------------*/
FoamFile
{
    version     2.0;
    format      ascii;
    class       dictionary;
    location    "system";
    object      controlDict;
}
// * * * * * * * * * * * * * * * * * * * * * * * * * * * * * * * * * * * * * //

libs ("${DRL_LIBBIN}/libPinballRotatingWallVelocity.so");

application     pimpleFoam;

startFrom       latestTime;

startTime       0;

stopAt          endTime;

endTime         300;

//deltaT          0.01;

deltaT          5.0e-3;

//writeControl    adjustableRunTime;

writeControl    runTime;

writeInterval   0.125;

//purgeWrite      0;

purgeWrite      1;

writeFormat     ascii;

writePrecision  8;

timeFormat      general;

timePrecision   8;

//adjustTimeStep yes;

//maxDeltaT 0.01;

//maxCo 1.0;

//runTimeModifiable true;

runTimeModifiable false;

functions
{
    forces
    {
        type            forceCoeffs;
        libs            (forces);
        executeControl  timeStep;
        executeInterval 100;
        //writeControl    writeTime;
        writeControl    timeStep;
        writeInterval   100;
        timeStart       300;
        log yes;
        writeFields     yes;

        patches
        (
            cylinders
        );
	coefficients    (Cd Cl);
        rhoInf      1;
        rho         rhoInf;

        CofR        (-0.433 0.0 0.0);
        liftDir     (0 1 0);
        dragDir     (1 0 0);
        //pitchAxis   (0 0 1);
        magUInf     1.0;
        lRef        2.5;
        Aref        0.05;
    }
    
    field_cylinder_a
    {

        type            surfaceFieldValue;
        libs            (fieldFunctionObjects);
        fields          (forceCoeff);
        //writeControl    timeStep;
        //executeControl  timeStep;
        //executeInterval 2;
        writeControl    timeStep;
        writeInterval   100;
        timeStart       300;
        operation       sum;
        regionType      faceZone;
        name            faceZone_a;
        weightField     none;
        writeFields     yes;
        surfaceFormat   raw;

    }

    field_cylinder_b
    {

        type            surfaceFieldValue;
        libs            (fieldFunctionObjects);
        fields          (forceCoeff);
        //writeControl    timeStep;
        //writeControl    writeTime;
        //executeControl  timeStep;
        //executeInterval 2;
        writeControl    timeStep;
        writeInterval   100;
        timeStart       300;
        operation       sum;
        regionType      faceZone;
        name            faceZone_b;
        weightField     none;
        writeFields     yes;
        surfaceFormat   raw;

    }
    field_cylinder_c
    {

        type            surfaceFieldValue;
        libs            (fieldFunctionObjects);
        fields          (forceCoeff);
        //writeControl    timeStep;
        //writeControl    writeTime;
        //executeControl  timeStep;
        //executeInterval 2;
        writeControl    timeStep;
        writeInterval   100;
        timeStart       300;
        operation       sum;
        regionType      faceZone;
        name            faceZone_c;
        weightField     none;
        writeFields     yes;
        surfaceFormat   raw;

    }

    probes
    {
        type            probes;
        libs            (sampling);

        // Name of the directory for probe data
        name            probes;

        // Write at same frequency as fields
        executeControl  timeStep;
        executeInterval 100;
        writeControl    timeStep;
        writeInterval   100;
        timeStart       300;

        // Fields to be probed
        fields          (p);

        // Optional: do not recalculate cells if mesh moves
        fixedLocations  true;

        // Optional: interpolation scheme to use (default is cell)
        interpolationScheme cell;

        probeLocations
        (
		(0.77565 -1.99156 0.005)
		(0.75253 -1.99056 0.005)
		(0.75118 -1.51555 0.005)
		(0.75397 -1.00225 0.005)
		(0.74813 -0.50268 0.005)
		(0.73365 -0.00713 0.005)
		(0.74886 0.50268 0.005)
		(0.74409 0.99760 0.005)
		(0.75532 1.51555 0.005)
		(0.75730 1.99056 0.005)
		(0.78042 1.99156 0.005)
		(0.95121 -1.99911 0.005)
		(1.00608 -1.97927 0.005)
		(0.99522 -1.49293 0.005)
		(0.99928 -0.98844 0.005)
		(1.00596 -0.51543 0.005)
		(1.00682 -0.01470 0.005)
		(0.99160 0.48577 0.005)
		(1.00195 0.98844 0.005)
		(0.99923 1.49293 0.005)
		(1.01081 1.97927 0.005)
		(0.95593 1.99911 0.005)
		(1.28221 -1.99091 0.005)
		(1.24900 -1.98951 0.005)
		(1.25422 -1.50033 0.005)
		(1.23696 -0.99298 0.005)
		(1.25702 -0.48829 0.005)
		(1.25167 -0.01477 0.005)
		(1.25833 0.48829 0.005)
		(1.23960 0.99298 0.005)
		(1.25818 1.50033 0.005)
		(1.25367 1.98951 0.005)
		(1.28687 1.99091 0.005)
		(1.49609 -1.99992 0.005)
		(1.49609 -1.99992 0.005)
		(1.49070 -1.50709 0.005)
		(1.48753 -0.99775 0.005)
		(1.49162 -0.49050 0.005)
		(1.49648 0.01484 0.005)
		(1.49291 0.49050 0.005)
		(1.49013 0.99775 0.005)
		(1.49460 1.50709 0.005)
		(1.50070 1.99992 0.005)
		(1.50070 1.99992 0.005)
		(2.00965 -1.99980 0.005)
		(2.00965 -1.99980 0.005)
		(1.98800 -1.49102 0.005)
		(1.99130 -1.00736 0.005)
		(2.00493 -0.49535 0.005)
		(2.01698 -0.01499 0.005)
		(2.00619 0.49535 0.005)
		(1.99383 1.00736 0.005)
		(1.99173 1.49102 0.005)
		(2.01415 1.99980 0.005)
		(2.01415 1.99980 0.005)
		(2.48484 -1.99846 0.005)
		(2.48484 -1.99846 0.005)
		(2.49841 -1.50533 0.005)
		(2.48475 -0.98632 0.005)
		(2.52283 -0.50024 0.005)
		(2.51186 -0.01513 0.005)
		(2.52405 0.50024 0.005)
		(2.48714 0.98632 0.005)
		(2.50203 1.50533 0.005)
		(2.48924 1.99846 0.005)
		(2.48924 1.99846 0.005)
		(2.98581 -1.99848 0.005)
		(2.98581 -1.99848 0.005)
		(2.99293 -1.48835 0.005)
		(3.01577 -0.99614 0.005)
		(2.97832 -0.50455 0.005)
		(3.00660 -0.01527 0.005)
		(2.97950 0.50455 0.005)
		(3.01809 0.99614 0.005)
		(2.99638 1.48835 0.005)
		(2.99011 1.99848 0.005)
		(2.99011 1.99848 0.005)
		(3.49538 -1.99906 0.005)
		(3.49538 -1.99906 0.005)
		(3.49018 -1.50201 0.005)
		(3.50060 -1.00512 0.005)
		(3.51329 -0.50960 0.005)
		(3.52819 -0.01542 0.005)
		(3.51444 0.50960 0.005)
		(3.50286 1.00512 0.005)
		(3.49353 1.50201 0.005)
		(3.49957 1.99906 0.005)
		(3.49957 1.99906 0.005)
		(3.99303 -1.99936 0.005)
		(3.99303 -1.99936 0.005)
		(3.98098 -1.48411 0.005)
		(3.97930 -0.98268 0.005)
		(3.98017 -0.48281 0.005)
		(3.97831 0.01555 0.005)
		(3.98122 0.48281 0.005)
		(3.98142 0.98268 0.005)
		(3.98416 1.48411 0.005)
		(3.99710 1.99936 0.005)
		(3.99710 1.99936 0.005)
		(4.45613 -1.99851 0.005)
		(4.45613 -1.99851 0.005)
		(4.52868 -1.49886 0.005)
		(4.51331 -0.99227 0.005)
		(4.50083 -0.48743 0.005)
		(4.48611 0.01570 0.005)
		(4.50185 0.48743 0.005)
		(4.51536 0.99227 0.005)
		(4.53175 1.49886 0.005)
		(4.46010 1.99851 0.005)
		(4.46010 1.99851 0.005)
		(4.96822 -1.99959 0.005)
		(4.96822 -1.99959 0.005)
		(5.03836 -1.51258 0.005)
		(5.01027 -1.00118 0.005)
		(4.98537 -0.49173 0.005)
		(4.95867 0.01583 0.005)
		(4.98635 0.49173 0.005)
		(5.01225 1.00118 0.005)
		(5.04133 1.51258 0.005)
		(4.97207 1.99959 0.005)
		(4.97207 1.99959 0.005)
		(5.41661 -1.99846 0.005)
		(5.53675 -1.97803 0.005)
		(5.48935 -1.49249 0.005)
		(5.45015 -0.97696 0.005)
		(5.52114 -0.49649 0.005)
		(5.48120 0.01598 0.005)
		(5.52209 0.49649 0.005)
		(5.45201 0.97696 0.005)
		(5.49217 1.49249 0.005)
		(5.54045 1.97803 0.005)
		(5.42036 1.99846 0.005)
		(6.03247 -1.99523 0.005)
		(6.03247 -1.99523 0.005)
		(5.97286 -1.50524 0.005)
		(6.04095 -1.01968 0.005)
		(5.99027 -0.50065 0.005)
		(6.05896 -0.01615 0.005)
		(5.99119 0.50065 0.005)
		(6.04280 1.01968 0.005)
		(5.97559 1.50524 0.005)
		(6.03605 1.99523 0.005)
		(6.03605 1.99523 0.005)
		(6.57404 -1.98112 0.005)
		(6.43570 -1.97640 0.005)
		(6.50124 -1.48638 0.005)
		(6.56678 -0.99637 0.005)
		(6.49870 -0.50517 0.005)
		(6.56489 -0.01630 0.005)
		(6.49958 0.50517 0.005)
		(6.43424 0.99403 0.005)
		(6.50381 1.48638 0.005)
		(6.43911 1.97640 0.005)
		(6.57742 1.98112 0.005)
		(7.00616 -1.99588 0.005)
		(7.00616 -1.99588 0.005)
		(7.06894 -1.50103 0.005)
		(6.98620 -1.00366 0.005)
		(7.04969 -0.51006 0.005)
		(6.97198 0.01641 0.005)
		(7.05054 0.51006 0.005)
		(6.98787 1.00366 0.005)
		(7.07140 1.50103 0.005)
		(7.00943 1.99588 0.005)
		(7.00943 1.99588 0.005)
		(7.95654 -1.99467 0.005)
		(7.95654 -1.99467 0.005)
		(8.01475 -1.49181 0.005)
		(8.06908 -1.02248 0.005)
		(7.96784 -0.48474 0.005)
		(8.02292 -0.01672 0.005)
		(7.96858 0.48474 0.005)
		(8.07061 1.02248 0.005)
		(8.01698 1.49181 0.005)
		(7.95952 1.99467 0.005)
		(7.95952 1.99467 0.005)
		(9.02759 -1.99640 0.005)
		(9.02759 -1.99640 0.005)
		(9.07710 -1.51863 0.005)
		(8.94498 -1.00362 0.005)
		(8.99894 -0.49330 0.005)
		(9.04929 -0.01701 0.005)
		(8.99961 0.49330 0.005)
		(8.94635 1.00362 0.005)
		(9.07914 1.51863 0.005)
		(9.03026 1.99640 0.005)
		(9.03026 1.99640 0.005)
		(9.81729 -1.98781 0.005)
		(9.81729 -1.98781 0.005)
		(9.86326 -1.50382 0.005)
		(9.91251 -0.98526 0.005)
		(9.95847 -0.50127 0.005)
		(9.99797 0.08643 0.005)
		(9.95908 0.50127 0.005)
		(9.91371 0.98526 0.005)
		(9.86510 1.50382 0.005)
		(9.81973 1.98781 0.005)
		(9.81973 1.98781 0.005)
		(-0.48443 -1.98315 0.005)
		(-0.48443 -1.98315 0.005)
		(-0.48443 -1.50688 0.005)
		(-0.48255 1.50688 0.005)
		(-0.48274 1.98315 0.005)
		(-0.48274 1.98315 0.005)
		(-0.20123 -1.98062 0.005)
		(-0.27203 -1.96005 0.005)
		(-0.25594 -1.49411 0.005)
		(-0.25379 1.49411 0.005)
		(-0.26977 1.96005 0.005)
		(-0.19879 1.98062 0.005)
		(0.08197 -1.99086 0.005)
		(0.01117 -1.96991 0.005)
		(-0.00119 -1.49981 0.005)
		(0.00098 1.49981 0.005)
		(0.01421 1.96991 0.005)
		(0.08520 1.99086 0.005)
		(0.29437 -1.99095 0.005)
		(0.22357 -1.96967 0.005)
		(0.26192 -1.50666 0.005)
		(0.25507 1.48614 0.005)
		(0.22722 1.96967 0.005)
		(0.29821 1.99095 0.005)
		(0.57757 -1.99694 0.005)
		(0.50677 -1.97523 0.005)
		(0.50319 -1.50613 0.005)
		(0.50612 1.50613 0.005)
		(0.51126 1.97523 0.005)
		(0.58225 1.99694 0.005)
		(-1.56555 -1.99384 0.005)
		(-1.48308 -1.98443 0.005)
		(-1.48309 -1.51225 0.005)
		(-1.49615 -0.97823 0.005)
		(-1.49615 0.97823 0.005)
		(-1.48309 1.51225 0.005)
		(-1.48308 1.98443 0.005)
		(-1.56555 1.99384 0.005)
		(-1.30784 -1.96442 0.005)
		(-1.24849 -1.95764 0.005)
		(-1.24849 -1.49850 0.005)
		(-1.25413 -1.00240 0.005)
		(-1.25413 1.00240 0.005)
		(-1.24849 1.49850 0.005)
		(-1.24849 1.95764 0.005)
		(-1.30784 1.96442 0.005)
		(-0.98003 -1.99569 0.005)
		(-0.98003 -1.99569 0.005)
		(-0.98003 -1.49324 0.005)
		(-0.99486 -1.01625 0.005)
		(-0.99486 1.01625 0.005)
		(-0.97955 1.49324 0.005)
		(-0.97960 1.99569 0.005)
		(-0.97960 1.99569 0.005)
		(-0.62603 -1.98978 0.005)
		(-0.76763 -1.94996 0.005)
		(-0.76763 -1.49040 0.005)
		(-0.75938 -0.99525 0.005)
		(-0.75938 0.99525 0.005)
		(-0.76656 1.49040 0.005)
		(-0.76666 1.94996 0.005)
		(-0.62471 1.98978 0.005)
		(-0.69376 -0.01754 0.005)
		(-0.70273 0.09042 0.005)
		(-0.73633 0.20248 0.005)
		(-0.79090 0.30947 0.005)
		(-0.83196 0.37837 0.005)
		(-0.90973 0.45121 0.005)
		(-0.98689 0.51886 0.005)
		(-1.10011 0.56659 0.005)
		(-1.18791 0.58638 0.005)
		(-1.28578 0.59484 0.005)
		(-1.39608 0.58755 0.005)
		(-1.51217 0.57001 0.005)
		(-1.58581 0.52181 0.005)
		(-1.69861 0.44896 0.005)
		(-1.76504 0.38514 0.005)
		(-1.81231 0.31099 0.005)
		(-1.87049 0.20156 0.005)
		(-1.87857 0.08933 0.005)
		(-1.89999 -0.01776 0.005)
		(-1.87857 -0.08933 0.005)
		(-1.87049 -0.20156 0.005)
		(-1.81231 -0.31099 0.005)
		(-1.76504 -0.38514 0.005)
		(-1.69861 -0.44896 0.005)
		(-1.58581 -0.52181 0.005)
		(-1.51217 -0.57001 0.005)
		(-1.39608 -0.58755 0.005)
		(-1.28578 -0.59484 0.005)
		(-1.18791 -0.58638 0.005)
		(-1.10011 -0.56659 0.005)
		(-0.98689 -0.51886 0.005)
		(-0.90973 -0.45121 0.005)
		(-0.83196 -0.37837 0.005)
		(-0.79090 -0.30947 0.005)
		(-0.73633 -0.20248 0.005)
		(-0.70273 -0.09042 0.005)
		(-0.49663 -0.02342 0.005)
		(-0.50142 0.12988 0.005)
		(-0.56164 0.29569 0.005)
		(-0.60692 0.39194 0.005)
		(-0.68605 0.52905 0.005)
		(-0.78867 0.62643 0.005)
		(-0.90576 0.69303 0.005)
		(-1.03629 0.75802 0.005)
		(-1.16374 0.77933 0.005)
		(-1.31271 0.78874 0.005)
		(-1.44937 0.79021 0.005)
		(-1.54957 0.75311 0.005)
		(-1.71953 0.68353 0.005)
		(-1.83181 0.60158 0.005)
		(-1.92549 0.49834 0.005)
		(-1.99844 0.39200 0.005)
		(-2.04018 0.28704 0.005)
		(-2.09341 0.14827 0.005)
		(-2.10297 -0.02008 0.005)
		(-2.09341 -0.14827 0.005)
		(-2.04018 -0.28704 0.005)
		(-1.99844 -0.39200 0.005)
		(-1.92549 -0.49834 0.005)
		(-1.83181 -0.60158 0.005)
		(-1.71953 -0.68353 0.005)
		(-1.54957 -0.75311 0.005)
		(-1.44937 -0.79021 0.005)
		(-1.31271 -0.78874 0.005)
		(-1.16374 -0.77933 0.005)
		(-1.03629 -0.75802 0.005)
		(-0.90576 -0.69303 0.005)
		(-0.78867 -0.62643 0.005)
		(-0.68605 -0.52905 0.005)
		(-0.60692 -0.39194 0.005)
		(-0.56164 -0.29569 0.005)
		(-0.50142 -0.12988 0.005)
		(0.60401 -0.75019 0.005)
		(0.59648 -0.64553 0.005)
		(0.55507 -0.54329 0.005)
		(0.50912 -0.44964 0.005)
		(0.44824 -0.35827 0.005)
		(0.38699 -0.29285 0.005)
		(0.30976 -0.24144 0.005)
		(0.20078 -0.17621 0.005)
		(0.09077 -0.15625 0.005)
		(0.01120 -0.15525 0.005)
		(-0.10775 -0.16157 0.005)
		(-0.22058 -0.18850 0.005)
		(-0.28757 -0.21710 0.005)
		(-0.37645 -0.27883 0.005)
		(-0.45671 -0.36396 0.005)
		(-0.52208 -0.46473 0.005)
		(-0.56122 -0.53475 0.005)
		(-0.58541 -0.63854 0.005)
		(-0.60541 -0.73921 0.005)
		(-0.59011 -0.86116 0.005)
		(-0.56332 -0.94711 0.005)
		(-0.52185 -1.03589 0.005)
		(-0.46086 -1.12728 0.005)
		(-0.38840 -1.21840 0.005)
		(-0.31026 -1.25780 0.005)
		(-0.19164 -1.31848 0.005)
		(-0.10363 -1.34388 0.005)
		(-0.01595 -1.34788 0.005)
		(0.10765 -1.34380 0.005)
		(0.21975 -1.31748 0.005)
		(0.30465 -1.26844 0.005)
		(0.39038 -1.21043 0.005)
		(0.46399 -1.12977 0.005)
		(0.51890 -1.04663 0.005)
		(0.56497 -0.95045 0.005)
		(0.58657 -0.86013 0.005)
		(0.80670 -0.75210 0.005)
		(0.77916 -0.60470 0.005)
		(0.75066 -0.47944 0.005)
		(0.68205 -0.35149 0.005)
		(0.62165 -0.22496 0.005)
		(0.51729 -0.14274 0.005)
		(0.39581 -0.06272 0.005)
		(0.27995 0.00519 0.005)
		(0.14623 0.04535 0.005)
		(-0.01053 0.04537 0.005)
		(-0.11557 0.03647 0.005)
		(-0.28779 0.00569 0.005)
		(-0.38116 -0.04340 0.005)
		(-0.51127 -0.12419 0.005)
		(-0.62475 -0.25924 0.005)
		(-0.68546 -0.34657 0.005)
		(-0.76464 -0.48366 0.005)
		(-0.79767 -0.62123 0.005)
		(-0.79680 -0.75596 0.005)
		(-0.78781 -0.90153 0.005)
		(-0.74252 -1.02260 0.005)
		(-0.67683 -1.15563 0.005)
		(-0.61103 -1.27355 0.005)
		(-0.52980 -1.34087 0.005)
		(-0.38649 -1.45146 0.005)
		(-0.26053 -1.50666 0.005)
		(-0.12499 -1.53557 0.005)
		(0.00323 -1.54539 0.005)
		(0.11957 -1.54651 0.005)
		(0.26192 -1.50666 0.005)
		(0.40606 -1.44391 0.005)
		(0.51670 -1.36209 0.005)
		(0.61822 -1.26971 0.005)
		(0.69321 -1.15125 0.005)
		(0.74793 -1.03000 0.005)
		(0.79052 -0.89321 0.005)
		(0.60460 0.75019 0.005)
		(0.58730 0.86013 0.005)
		(0.56582 0.95045 0.005)
		(0.51977 1.04663 0.005)
		(0.46484 1.12977 0.005)
		(0.39117 1.21043 0.005)
		(0.30535 1.26844 0.005)
		(0.22056 1.31748 0.005)
		(0.10851 1.34380 0.005)
		(-0.01509 1.34788 0.005)
		(-0.10276 1.34388 0.005)
		(-0.19089 1.31848 0.005)
		(-0.30977 1.25780 0.005)
		(-0.38801 1.21840 0.005)
		(-0.46070 1.12728 0.005)
		(-0.52181 1.03588 0.005)
		(-0.56332 0.94711 0.005)
		(-0.59011 0.86116 0.005)
		(-0.60541 0.73921 0.005)
		(-0.58541 0.63854 0.005)
		(-0.56122 0.53475 0.005)
		(-0.52208 0.46473 0.005)
		(-0.45671 0.36396 0.005)
		(-0.37645 0.27883 0.005)
		(-0.28757 0.21710 0.005)
		(-0.22058 0.18850 0.005)
		(-0.10775 0.16157 0.005)
		(0.01120 0.15525 0.005)
		(0.09077 0.15625 0.005)
		(0.20078 0.17621 0.005)
		(0.30976 0.24144 0.005)
		(0.38699 0.29285 0.005)
		(0.44824 0.35827 0.005)
		(0.50917 0.44964 0.005)
		(0.55524 0.54329 0.005)
		(0.59687 0.64553 0.005)
		(0.79480 0.75320 0.005)
		(0.79284 0.89321 0.005)
		(0.75051 1.03000 0.005)
		(0.69588 1.15125 0.005)
		(0.60849 1.25680 0.005)
		(0.51903 1.36209 0.005)
		(0.40815 1.44391 0.005)
		(0.26425 1.50666 0.005)
		(0.12217 1.54651 0.005)
		(0.00581 1.54539 0.005)
		(-0.12250 1.53557 0.005)
		(-0.25828 1.50666 0.005)
		(-0.38469 1.45146 0.005)
		(-0.52875 1.34087 0.005)
		(-0.61035 1.27355 0.005)
		(-0.67660 1.15563 0.005)
		(-0.74252 1.02260 0.005)
		(-0.78781 0.90153 0.005)
		(-0.79680 0.75596 0.005)
		(-0.79767 0.62123 0.005)
		(-0.76464 0.48366 0.005)
		(-0.68546 0.34657 0.005)
		(-0.62475 0.25924 0.005)
		(-0.51127 0.12419 0.005)
		(-0.38116 0.04340 0.005)
		(-0.28779 -0.00569 0.005)
		(-0.11557 -0.03647 0.005)
		(-0.01053 -0.04537 0.005)
		(0.14623 -0.04535 0.005)
		(0.27995 -0.00519 0.005)
		(0.39581 0.06272 0.005)
		(0.51729 0.14274 0.005)
		(0.62165 0.22496 0.005)
		(0.68225 0.35149 0.005)
		(0.75134 0.47944 0.005)
		(0.78032 0.60470 0.005)
        );

        // Optional: filter out points that haven't been found. Default
        //           is to include them (with value -VGREAT)
        includeOutOfBounds  false;
    }

}

// ************************************************************************* //
